&MOM_input_nml
         parameter_filename = 'MOM_input',
                              'MOM_override' 
/

